LAMMPS (7 Feb 2024 - Update 1)
# ---------- LAMMPS Input Script for CaTiO3 ----------
# Units, boundary, and atom style
units           metal
dimension       3
boundary        p p p
atom_style      charge

# ---------- Read structure ----------
read_data       catio3_supercell_charge.data
Reading data file ...
  orthogonal box = (0 0 0) to (16.116147 16.388389 22.909079)
  reading atoms ...
  540 atoms

# ---------- Force field ----------
pair_style      buck/coul/long 10.0
kspace_style    pppm 1.0e-4

# Buckingham parameters (literature example: adjust if you have better data)
# pair_coeff <type1> <type2> A rho C
pair_coeff      1 1  0.0     1.0     0.0        # Ca-Ca
pair_coeff      2 2  0.0     1.0     0.0        # Ti-Ti
pair_coeff      3 3  22764.0 0.1490  27.88      # O-O
pair_coeff      1 3  955.0   0.312   0.0        # Ca-O
pair_coeff      2 3  1020.0  0.210   0.0        # Ti-O
pair_coeff      1 2  0.0     1.0     0.0        # Ca-Ti

# ---------- Masses ----------
mass 1 40.078   # Ca
mass 2 47.867   # Ti
mass 3 15.999   # O

# ---------- Neighbor and timestep ----------
neighbor        2.0 bin
neigh_modify    delay 2 every 1
timestep        0.001  # small for stability during equilibration

# ---------- Minimization ----------
thermo          100
thermo_style    custom step temp pe etotal press
min_style       cg
minimize        1e-6 1e-8 10000 100000
PPPM initialization ...
  G vector (1/distance) = 0.31384396
  grid = 16 16 24
  stencil order = 5
  estimated absolute RMS force accuracy = 0.0012980068
  estimated relative force accuracy = 9.0141584e-05
  3d grid and FFT values/proc = 16399 6144
Generated 0 of 3 mixed pair_coeff terms from geometric mixing rule
Step          Temp          PotEng         TotEng         Press
0   0             -19639.49      -19639.49      -1545615.2
Averages over the last 7 of 14 rows, steps 700 to 1293:
Temp PotEng TotEng Press
0 -30608 -30608 -31394.3
Loop time of 17.4269 on 1 procs for 1293 steps with 540 atoms

Minimization stats:
  Stopping criterion = energy tolerance
  Energy initial, next-to-last, final =
  Force two-norm initial, final = 82.0326 3.8168794
  Force max component initial, final = 4.51947 0.59829738
  Final line search alpha, max atom move = 0.039378924 0.023560307
  Iterations, force evaluations = 1293 2456

# ---------- Equilibration (NVT) ----------
reset_timestep  0
velocity        all create 300 12345 mom yes rot yes dist gaussian
fix             1 all nvt temp 300 300 0.1
dump            1 all custom 100 traj_eq.lammpstrj id type x y z
thermo          100
run             20000
PPPM initialization ...
  G vector (1/distance) = 0.31384396
  grid = 16 16 24
  stencil order = 5
  estimated absolute RMS force accuracy = 0.0012980068
  estimated relative force accuracy = 9.0141584e-05
  3d grid and FFT values/proc = 16399 6144
Generated 0 of 3 mixed pair_coeff terms from geometric mixing rule
Step          Temp          PotEng         TotEng         Press
0   300           -30678.475     -30657.574     -21410.059
Averages over the last 101 of 201 rows, steps 10000 to 20000:
Temp PotEng TotEng Press
299.523 -30870.7 -30849.9 -30796.7
Loop time of 112.959 on 1 procs for 20000 steps with 540 atoms

unfix           1
undump          1

# ---------- Production (NPT) ----------
fix             2 all npt temp 300 300 0.1 iso 0.0 0.0 1.0
dump            2 all custom 500 traj_prod.lammpstrj id type x y z
thermo          500
run             50000
PPPM initialization ...
  G vector (1/distance) = 0.31384396
  grid = 16 16 24
  stencil order = 5
  estimated absolute RMS force accuracy = 0.0012980068
  estimated relative force accuracy = 9.0141584e-05
  3d grid and FFT values/proc = 16399 6144
Generated 0 of 3 mixed pair_coeff terms from geometric mixing rule
Step          Temp          PotEng         TotEng         Press
20000   312.03705     -30870.953     -30849.213     -29371.786
Averages over the last 23 of 45 rows, steps 31000 to 42000:
Temp PotEng TotEng Press
305.262 -31011 -30989.7 423.478
